networks/opendss/CKT_2361_02510.dss
! OpenDSS script generated from multiconductor network
Clear

New Circuit.mc_network basekv=12.0 pu=1.000000 angle=0.00 frequency=60.0 phases=3 Mvasc3=143993 Mvasc1=47997.6
~ bus1=-8888882135278.1.2.3

! Line codes
New LineCode.1000_JCN_3PH_12KV_3 nphases=3 units=km Rmatrix=[ 0.030473 | 0 0.030473 | 0 0 0.030473 ] Xmatrix=[ 0.046127 | 0 0.046127 | 0 0 0.046127 ] Cmatrix=[ 0 | 0 0 | 0 0 0 ]
New LineCode.6_CU_1PH_12KV_1 nphases=1 units=km Rmatrix=[ 1e-05 ] Xmatrix=[ 1e-05 ] Cmatrix=[ 0 ]
New LineCode.1/0_JCN_3PH_12KV_3 nphases=3 units=km Rmatrix=[ 0.001347 | 0 0.001347 | 0 0 0.001347 ] Xmatrix=[ 0.000412 | 0 0.000412 | 0 0 0.000412 ] Cmatrix=[ 0 | 0 0 | 0 0 0 ]
New LineCode.1/0_JCN_1PH_12KV_1 nphases=1 units=km Rmatrix=[ 0.00131 ] Xmatrix=[ 0.0004 ] Cmatrix=[ 0 ]
New LineCode.336_ACSR_3PH_12KV_3 nphases=3 units=km Rmatrix=[ 0.012697 | 0 0.012697 | 0 0 0.012697 ] Xmatrix=[ 0.028433 | 0 0.028433 | 0 0 0.028433 ] Cmatrix=[ 0 | 0 0 | 0 0 0 ]
New LineCode.4_ACSR_3PH_12KV_3 nphases=3 units=km Rmatrix=[ 0.195511 | 0 0.195511 | 0 0 0.195511 ] Xmatrix=[ 0.071741 | 0 0.071741 | 0 0 0.071741 ] Cmatrix=[ 0 | 0 0 | 0 0 0 ]
New LineCode.2_JCN_3PH_12KV_3 nphases=3 units=km Rmatrix=[ 0.011603 | 0 0.011603 | 0 0 0.011603 ] Xmatrix=[ 0.002446 | 0 0.002446 | 0 0 0.002446 ] Cmatrix=[ 0 | 0 0 | 0 0 0 ]
New LineCode.2_CIC_3PH_12KV_3 nphases=3 units=km Rmatrix=[ 0.062756 | 0 0.062756 | 0 0 0.062756 ] Xmatrix=[ 0.013228 | 0 0.013228 | 0 0 0.013228 ] Cmatrix=[ 0 | 0 0 | 0 0 0 ]
New LineCode.2_CIC_1PH_12KV_1 nphases=1 units=km Rmatrix=[ 0.127667 ] Xmatrix=[ 0.02691 ] Cmatrix=[ 0 ]
New LineCode.1/0_JCN_2PH_12KV_2 nphases=2 units=km Rmatrix=[ 0.050288 | 0 0.050288 ] Xmatrix=[ 0.01537 | 0 0.01537 ] Cmatrix=[ 0 | 0 0 ]
New LineCode.2_CLP_1PH_12KV_1 nphases=1 units=km Rmatrix=[ 0.001259 ] Xmatrix=[ 0.000265 ] Cmatrix=[ 0 ]
New LineCode.350_AL_1PH_12KV_1 nphases=1 units=km Rmatrix=[ 0.027064 ] Xmatrix=[ 0.020563 ] Cmatrix=[ 0 ]
New LineCode.2_CLP_3PH_12KV_3 nphases=3 units=km Rmatrix=[ 0.020455 | 0 0.020455 | 0 0 0.020455 ] Xmatrix=[ 0.004312 | 0 0.004312 | 0 0 0.004312 ] Cmatrix=[ 0 | 0 0 | 0 0 0 ]
New LineCode.1/0_CLP_1PH_12KV_1 nphases=1 units=km Rmatrix=[ 0.144424 ] Xmatrix=[ 0.044143 ] Cmatrix=[ 0 ]
New LineCode.350_JCN_3PH_12KV_3 nphases=3 units=km Rmatrix=[ 0.028867 | 0 0.028867 | 0 0 0.028867 ] Xmatrix=[ 0.021933 | 0 0.021933 | 0 0 0.021933 ] Cmatrix=[ 0 | 0 0 | 0 0 0 ]
New LineCode.1/0_CLP_3PH_12KV_3 nphases=3 units=km Rmatrix=[ 0.002056 | 0 0.002056 | 0 0 0.002056 ] Xmatrix=[ 0.000628 | 0 0.000628 | 0 0 0.000628 ] Cmatrix=[ 0 | 0 0 | 0 0 0 ]
New LineCode.2_JCN_1PH_12KV_1 nphases=1 units=km Rmatrix=[ 0.104942 ] Xmatrix=[ 0.02212 ] Cmatrix=[ 0 ]
New LineCode.750_AL_2PH_12KV_2 nphases=2 units=km Rmatrix=[ 0.000102 | 0 0.000102 ] Xmatrix=[ 0.000126 | 0 0.000126 ] Cmatrix=[ 0 | 0 0 ]
New LineCode.750_AL_1PH_12KV_1 nphases=1 units=km Rmatrix=[ 0.019554 ] Xmatrix=[ 0.024014 ] Cmatrix=[ 0 ]
New LineCode.1/0_ACSR_3PH_12KV_3 nphases=3 units=km Rmatrix=[ 0.062401 | 0 0.062401 | 0 0 0.062401 ] Xmatrix=[ 0.049684 | 0 0.049684 | 0 0 0.049684 ] Cmatrix=[ 0 | 0 0 | 0 0 0 ]
New LineCode.350_AL_3PH_12KV_3 nphases=3 units=km Rmatrix=[ 0.027388 | 0 0.027388 | 0 0 0.027388 ] Xmatrix=[ 0.020809 | 0 0.020809 | 0 0 0.020809 ] Cmatrix=[ 0 | 0 0 | 0 0 0 ]
New LineCode.2_CLP_2PH_12KV_2 nphases=2 units=km Rmatrix=[ 0.052539 | 0 0.052539 ] Xmatrix=[ 0.011074 | 0 0.011074 ] Cmatrix=[ 0 | 0 0 ]
New LineCode.653_ACSR_3PH_653_ACSR_N_12KV_4 nphases=4 units=km Rmatrix=[ 0.008125 | 0 0.008125 | 0 0 0.008125 | 0 0 0 0.008125 ] Xmatrix=[ 0.027623 | 0 0.027623 | 0 0 0.027623 | 0 0 0 0.027623 ] Cmatrix=[ 0 | 0 0 | 0 0 0 | 0 0 0 0 ]
New LineCode.2_ACSR_3PH_2_ACSR_N_12KV_4 nphases=4 units=km Rmatrix=[ 0.003015 | 0 0.003015 | 0 0 0.003015 | 0 0 0 0.003015 ] Xmatrix=[ 0.001461 | 0 0.001461 | 0 0 0.001461 | 0 0 0 0.001461 ] Cmatrix=[ 0 | 0 0 | 0 0 0 | 0 0 0 0 ]
New LineCode.4_CU_2PH_12KV_2 nphases=2 units=km Rmatrix=[ 0.03378 | 0 0.03378 ] Xmatrix=[ 0.01841 | 0 0.01841 ] Cmatrix=[ 0 | 0 0 ]
New LineCode.4_ACSR_2PH_12KV_2 nphases=2 units=km Rmatrix=[ 0.185378 | 0 0.185378 ] Xmatrix=[ 0.068023 | 0 0.068023 ] Cmatrix=[ 0 | 0 0 ]
New LineCode.4/0_ACSR_3PH_4/0_ACSR_N_12KV_4 nphases=4 units=km Rmatrix=[ 0.026335 | 0 0.026335 | 0 0 0.026335 | 0 0 0 0.026335 ] Xmatrix=[ 0.033525 | 0 0.033525 | 0 0 0.033525 | 0 0 0 0.033525 ] Cmatrix=[ 0 | 0 0 | 0 0 0 | 0 0 0 0 ]
New LineCode.4_CU_3PH_12KV_3 nphases=3 units=km Rmatrix=[ 0.041267 | 0 0.041267 | 0 0 0.041267 ] Xmatrix=[ 0.02249 | 0 0.02249 | 0 0 0.02249 ] Cmatrix=[ 0 | 0 0 | 0 0 0 ]
New LineCode.1/0_ACSR_2PH_12KV_2 nphases=2 units=km Rmatrix=[ 0.002423 | 0 0.002423 ] Xmatrix=[ 0.00193 | 0 0.00193 ] Cmatrix=[ 0 | 0 0 ]
New LineCode.336_ACSR_3PH_336_ACSR_N_12KV_4 nphases=4 units=km Rmatrix=[ 0.012232 | 0 0.012232 | 0 0 0.012232 | 0 0 0 0.012232 ] Xmatrix=[ 0.024394 | 0 0.024394 | 0 0 0.024394 | 0 0 0 0.024394 ] Cmatrix=[ 0 | 0 0 | 0 0 0 | 0 0 0 0 ]
New LineCode.6_CU_2PH_12KV_2 nphases=2 units=km Rmatrix=[ 0.101974 | 0 0.101974 ] Xmatrix=[ 0.036145 | 0 0.036145 ] Cmatrix=[ 0 | 0 0 ]
New LineCode.1/0_ACSR_3PH_12KV_2 nphases=2 units=km Rmatrix=[ 0.062401 | 0 0.062401 ] Xmatrix=[ 0.049684 | 0 0.049684 ] Cmatrix=[ 0 | 0 0 ]
New LineCode.4_ACSR_3PH_12KV_2 nphases=2 units=km Rmatrix=[ 0.195511 | 0 0.195511 ] Xmatrix=[ 0.071741 | 0 0.071741 ] Cmatrix=[ 0 | 0 0 ]
New LineCode.6_CU_3PH_12KV_3 nphases=3 units=km Rmatrix=[ 0.109652 | 0 0.109652 | 0 0 0.109652 ] Xmatrix=[ 0.038867 | 0 0.038867 | 0 0 0.038867 ] Cmatrix=[ 0 | 0 0 | 0 0 0 ]
New LineCode.653_ACSR_2PH_12KV_2 nphases=2 units=km Rmatrix=[ 0.000571 | 0 0.000571 ] Xmatrix=[ 0.002217 | 0 0.002217 ] Cmatrix=[ 0 | 0 0 ]
New LineCode.653_ACSR_2PH_653_ACSR_N_12KV_3_N nphases=3 units=km Rmatrix=[ 0.00021 | 0 0.00021 | 0 0 0.00021 ] Xmatrix=[ 0.000715 | 0 0.000715 | 0 0 0.000715 ] Cmatrix=[ 0 | 0 0 | 0 0 0 ]
New LineCode.1/0_ACSR_2PH_1/0_ACSR_N_12KV_3_N nphases=3 units=km Rmatrix=[ 0.006905 | 0 0.006905 | 0 0 0.006905 ] Xmatrix=[ 0.00499 | 0 0.00499 | 0 0 0.00499 ] Cmatrix=[ 0 | 0 0 | 0 0 0 ]
New LineCode.1/0_ACSR_3PH_1/0_ACSR_N_12KV_4 nphases=4 units=km Rmatrix=[ 0.10465 | 0 0.10465 | 0 0 0.10465 | 0 0 0 0.10465 ] Xmatrix=[ 0.075629 | 0 0.075629 | 0 0 0.075629 | 0 0 0 0.075629 ] Cmatrix=[ 0 | 0 0 | 0 0 0 | 0 0 0 0 ]
New LineCode.2_CU_2PH_12KV_2 nphases=2 units=km Rmatrix=[ 0.003077 | 0 0.003077 ] Xmatrix=[ 0.002502 | 0 0.002502 ] Cmatrix=[ 0 | 0 0 ]
New LineCode.6_CU_3PH_6_CU_N_12KV_4 nphases=4 units=km Rmatrix=[ 0.305832 | 0 0.305832 | 0 0 0.305832 | 0 0 0 0.305832 ] Xmatrix=[ 0.09877 | 0 0.09877 | 0 0 0.09877 | 0 0 0 0.09877 ] Cmatrix=[ 0 | 0 0 | 0 0 0 | 0 0 0 0 ]
New LineCode.6_CU_2PH_6_CU_N_12KV_3_N nphases=3 units=km Rmatrix=[ 0.006624 | 0 0.006624 | 0 0 0.006624 ] Xmatrix=[ 0.002139 | 0 0.002139 | 0 0 0.002139 ] Cmatrix=[ 0 | 0 0 | 0 0 0 ]
New LineCode.350_CLP_3PH_12KV_3 nphases=3 units=km Rmatrix=[ 0.03298 | 0 0.03298 | 0 0 0.03298 ] Xmatrix=[ 0.025058 | 0 0.025058 | 0 0 0.025058 ] Cmatrix=[ 0 | 0 0 | 0 0 0 ]
New LineCode.4_CU_3PH_4_CU_N_12KV_4 nphases=4 units=km Rmatrix=[ 0.009042 | 0 0.009042 | 0 0 0.009042 | 0 0 0 0.009042 ] Xmatrix=[ 0.004474 | 0 0.004474 | 0 0 0.004474 | 0 0 0 0.004474 ] Cmatrix=[ 0 | 0 0 | 0 0 0 | 0 0 0 0 ]
New LineCode.2_AL_3PH_12KV_3 nphases=3 units=km Rmatrix=[ 0.417459 | 0 0.417459 | 0 0 0.417459 ] Xmatrix=[ 0.087992 | 0 0.087992 | 0 0 0.087992 ] Cmatrix=[ 0 | 0 0 | 0 0 0 ]
New LineCode.336_ACSR_2PH_336_ACSR_N_12KV_3_N nphases=3 units=km Rmatrix=[ 0.000703 | 0 0.000703 | 0 0 0.000703 ] Xmatrix=[ 0.001401 | 0 0.001401 | 0 0 0.001401 ] Cmatrix=[ 0 | 0 0 | 0 0 0 ]
New LineCode.2_ACSR_3PH_12KV_3 nphases=3 units=km Rmatrix=[ 0.003016 | 0 0.003016 | 0 0 0.003016 ] Xmatrix=[ 0.001622 | 0 0.001622 | 0 0 0.001622 ] Cmatrix=[ 0 | 0 0 | 0 0 0 ]
New LineCode.2_ACSR_2PH_2_ACSR_N_12KV_3_N nphases=3 units=km Rmatrix=[ 0.00287 | 0 0.00287 | 0 0 0.00287 ] Xmatrix=[ 0.001391 | 0 0.001391 | 0 0 0.001391 ] Cmatrix=[ 0 | 0 0 | 0 0 0 ]
New LineCode.2_CU_3PH_12KV_3 nphases=3 units=km Rmatrix=[ 0.003486 | 0 0.003486 | 0 0 0.003486 ] Xmatrix=[ 0.002835 | 0 0.002835 | 0 0 0.002835 ] Cmatrix=[ 0 | 0 0 | 0 0 0 ]
New LineCode.4_ACSR_3PH_4_ACSR_N_12KV_4 nphases=4 units=km Rmatrix=[ 0.141446 | 0 0.141446 | 0 0 0.141446 | 0 0 0 0.141446 ] Xmatrix=[ 0.047576 | 0 0.047576 | 0 0 0.047576 | 0 0 0 0.047576 ] Cmatrix=[ 0 | 0 0 | 0 0 0 | 0 0 0 0 ]

! Lines
New Line.02510$GS4029-1 phases=3 Bus1=-8888882135278.1.2.3 Bus2=204115563.1.2.3 LineCode=1000_JCN_3PH_12KV_3 Length=0.375489 units=km
New Line.FD10631$ND16272044 phases=1 Bus1=16249604.2 Bus2=16272044.2 LineCode=6_CU_1PH_12KV_1 Length=0.08879 units=km
New Line.B5326713-1$ND16272044 phases=1 Bus1=16272044.2 Bus2=16240548.2 LineCode=6_CU_1PH_12KV_1 Length=0.001029 units=km
New Line.B5326713-2$B5326714-1 phases=1 Bus1=16240557.2 Bus2=16240404.2 LineCode=6_CU_1PH_12KV_1 Length=0.112222 units=km
New Line.ND165578679$ND165578610 phases=3 Bus1=165578679.1.2.3 Bus2=-777777165578679.1.2.3 LineCode=1/0_JCN_3PH_12KV_3 Length=0.061242 units=km
New Line.282763272$ND282763294 phases=1 Bus1=282763274.2 Bus2=-777777282763274.2 LineCode=1/0_JCN_1PH_12KV_1 Length=0.224743 units=km
New Line.4316122E$ND309151916 phases=3 Bus1=17424086.1.2.3 Bus2=-77777717424086.1.2.3 LineCode=336_ACSR_3PH_12KV_3 Length=0.029005 units=km
New Line.2253814E$ND16244101 phases=3 Bus1=16251504.1.2.3 Bus2=-77777716251504.1.2.3 LineCode=4_ACSR_3PH_12KV_3 Length=0.060618 units=km
New Line.2174825E$GS4029-2 phases=3 Bus1=204115572.1.2.3 Bus2=16229731.1.2.3 LineCode=1000_JCN_3PH_12KV_3 Length=0.15489 units=km
New Line.4705316E$211662411 phases=3 Bus1=144866883.1.2.3 Bus2=211662413.1.2.3 LineCode=2_JCN_3PH_12KV_3 Length=0.010374 units=km
New Line.211662411$P5608068-1 phases=3 Bus1=211662414.1.2.3 Bus2=144867054.1.2.3 LineCode=2_JCN_3PH_12KV_3 Length=0.004275 units=km
New Line.FD1682$BS8189-1 phases=3 Bus1=16258505.1.2.3 Bus2=16258743.1.2.3 LineCode=2_CIC_3PH_12KV_3 Length=0.029978 units=km
New Line.B5057978-1$BS8189-1 phases=3 Bus1=16258744.1.2.3 Bus2=16258527.1.2.3 LineCode=2_CIC_3PH_12KV_3 Length=0.056107 units=km
New Line.B5057979-1$B5057978-2 phases=1 Bus1=16258536.2 Bus2=16258599.2 LineCode=2_CIC_1PH_12KV_1 Length=0.133086 units=km
New Line.306025318$P5766418-1 phases=2 Bus1=306025321.1.3 Bus2=305535250.1.3 LineCode=1/0_JCN_2PH_12KV_2 Length=0.001212 units=km
New Line.ND94559414$94560125 phases=1 Bus1=94559414.2 Bus2=94560127.2 LineCode=2_CLP_1PH_12KV_1 Length=0.097855 units=km
New Line.P5444843-1$201042881 phases=1 Bus1=201042883.3 Bus2=16242927.3 LineCode=350_AL_1PH_12KV_1 Length=0.169056 units=km
New Line.B5057980-1$B5057979-2 phases=1 Bus1=16258608.2 Bus2=16258671.2 LineCode=2_CIC_1PH_12KV_1 Length=0.103244 units=km
New Line.P5461681-1$P5461682-2 phases=1 Bus1=16250805.3 Bus2=16250742.3 LineCode=350_AL_1PH_12KV_1 Length=0.117373 units=km
New Line.P5435717-1$P5461680-1 phases=1 Bus1=16250661.3 Bus2=16250956.3 LineCode=2_CLP_1PH_12KV_1 Length=0.214933 units=km
New Line.180014263$P5568288-1 phases=3 Bus1=180014266.1.2.3 Bus2=16251443.1.2.3 LineCode=2_CLP_3PH_12KV_3 Length=0.001938 units=km
New Line.P5475977-1$P5475979-2 phases=1 Bus1=16251532.1 Bus2=16251613.1 LineCode=1/0_CLP_1PH_12KV_1 Length=0.15807 units=km
New Line.189150720$P5498596-2 phases=1 Bus1=189150723.2 Bus2=16260025.2 LineCode=2_CLP_1PH_12KV_1 Length=0.001521 units=km
New Line.219502710$219502683 phases=1 Bus1=219502712.2 Bus2=219502685.2 LineCode=1/0_JCN_1PH_12KV_1 Length=0.091322 units=km
New Line.219502785$219502810 phases=1 Bus1=219502787.2 Bus2=219502812.2 LineCode=1/0_JCN_1PH_12KV_1 Length=0.027545 units=km
New Line.219502960$219502985 phases=1 Bus1=219502962.1 Bus2=219502987.1 LineCode=1/0_JCN_1PH_12KV_1 Length=0.051663 units=km
New Line.GS0431-2$276236416 phases=2 Bus1=276236146.2.3 Bus2=276236418.2.3 LineCode=1/0_JCN_2PH_12KV_2 Length=0.061655 units=km
New Line.84742653$P5521047-1 phases=1 Bus1=84742656.1 Bus2=84742413.1 LineCode=2_CLP_1PH_12KV_1 Length=0.006318 units=km
New Line.194179759$P5603353-2 phases=1 Bus1=194179762.3 Bus2=104760275.3 LineCode=2_CLP_1PH_12KV_1 Length=0.001861 units=km
New Line.189150821$P5498599-1 phases=1 Bus1=189150824.2 Bus2=16259872.2 LineCode=2_CLP_1PH_12KV_1 Length=0.001153 units=km
New Line.PH178E$237089232 phases=3 Bus1=237089199.1.2.3 Bus2=237089234.1.2.3 LineCode=1/0_JCN_3PH_12KV_3 Length=0.02438 units=km
New Line.GS0433-2$276236443 phases=2 Bus1=276235551.2.3 Bus2=276236445.2.3 LineCode=1/0_JCN_2PH_12KV_2 Length=0.137961 units=km
New Line.94560125$P5562358-2 phases=1 Bus1=94560128.2 Bus2=94559323.2 LineCode=2_CLP_1PH_12KV_1 Length=0.003799 units=km
New Line.219502683$P5752479-1 phases=1 Bus1=219502686.2 Bus2=219501877.2 LineCode=1/0_JCN_1PH_12KV_1 Length=0.001325 units=km
New Line.219502810$P5752472-2 phases=1 Bus1=219502813.2 Bus2=219502182.2 LineCode=1/0_JCN_1PH_12KV_1 Length=0.001226 units=km
New Line.B5057980-2$ND16284113 phases=1 Bus1=16258680.2 Bus2=16284113.2 LineCode=2_CIC_1PH_12KV_1 Length=0.11414 units=km
New Line.219502985$P5752474-2 phases=1 Bus1=219502988.1 Bus2=219502422.1 LineCode=1/0_JCN_1PH_12KV_1 Length=0.000794 units=km
New Line.GS0433-3$GS0432-1 phases=3 Bus1=276235560.1.2.3 Bus2=276235753.1.2.3 LineCode=350_JCN_3PH_12KV_3 Length=0.47336 units=km
New Line.276236416$P5779241-A phases=2 Bus1=276236419.2.3 Bus2=276236337.2.3 LineCode=1/0_JCN_2PH_12KV_2 Length=0.003188 units=km
New Line.P5766418-2$306025293 phases=2 Bus1=305535259.1.3 Bus2=306025296.1.3 LineCode=1/0_JCN_2PH_12KV_2 Length=0.00074 units=km
New Line.B5057981-1$ND16284113 phases=1 Bus1=16284113.2 Bus2=16260186.2 LineCode=2_CIC_1PH_12KV_1 Length=0.038318 units=km
New Line.7278T$165702763 phases=3 Bus1=16260170.1.2.3 Bus2=165702765.1.2.3 LineCode=1/0_JCN_3PH_12KV_3 Length=0.113023 units=km
New Line.P5444843-2$P5444842-1 phases=1 Bus1=16242936.3 Bus2=16242783.3 LineCode=350_AL_1PH_12KV_1 Length=0.131589 units=km
New Line.P5475979-1$P5475981-1 phases=1 Bus1=16251604.1 Bus2=16251676.1 LineCode=1/0_CLP_1PH_12KV_1 Length=0.171494 units=km
New Line.P5747178-1$237089232 phases=3 Bus1=237089235.1.2.3 Bus2=237089161.1.2.3 LineCode=1/0_JCN_3PH_12KV_3 Length=0.004895 units=km
New Line.276236443$P5779244-1 phases=2 Bus1=276236446.2.3 Bus2=276236032.2.3 LineCode=1/0_JCN_2PH_12KV_2 Length=0.00175 units=km
New Line.GS0431-5$285295946 phases=3 Bus1=276236173.1.2.3 Bus2=285295948.1.2.3 LineCode=1/0_JCN_3PH_12KV_3 Length=0.09057 units=km
New Line.P5521047-2$ND84742645 phases=1 Bus1=84742422.1 Bus2=84742645.1 LineCode=2_CLP_1PH_12KV_1 Length=0.002399 units=km
New Line.165702763$P5023553-1 phases=3 Bus1=165702766.1.2.3 Bus2=16230051.1.2.3 LineCode=1/0_CLP_3PH_12KV_3 Length=0.002927 units=km
New Line.189150809$P5498599-2 phases=1 Bus1=16259881.2 Bus2=189150812.2 LineCode=2_CLP_1PH_12KV_1 Length=0.000945 units=km
New Line.194179771$P5603353-1 phases=1 Bus1=104760266.3 Bus2=194179774.3 LineCode=2_CLP_1PH_12KV_1 Length=0.00114 units=km
New Line.306025293$306025243 phases=2 Bus1=306025295.1.3 Bus2=306025245.1.3 LineCode=1/0_JCN_2PH_12KV_2 Length=0.045291 units=km
New Line.ND84742645$84742680 phases=1 Bus1=84742645.1 Bus2=84742683.1 LineCode=2_CLP_1PH_12KV_1 Length=0.000918 units=km
New Line.ND84742645$84742709 phases=1 Bus1=84742645.1 Bus2=84742712.1 LineCode=2_CLP_1PH_12KV_1 Length=0.009436 units=km
New Line.P5562358-1$94560100 phases=1 Bus1=94559314.2 Bus2=94560103.2 LineCode=2_CLP_1PH_12KV_1 Length=0.003132 units=km
New Line.P5752472-1$219502835 phases=1 Bus1=219502173.2 Bus2=219502838.2 LineCode=1/0_JCN_1PH_12KV_1 Length=0.000781 units=km
New Line.P5752474-1$219503010 phases=1 Bus1=219502413.1 Bus2=219503013.1 LineCode=1/0_JCN_1PH_12KV_1 Length=0.001071 units=km
New Line.285295946$PME5088-4 phases=3 Bus1=285295949.1.2.3 Bus2=285295055.1.2.3 LineCode=1/0_JCN_3PH_12KV_3 Length=0.001024 units=km
New Line.P5475981-2$P5475980-2 phases=1 Bus1=16251685.1 Bus2=16251757.1 LineCode=1/0_CLP_1PH_12KV_1 Length=0.204866 units=km
New Line.189150809$189150913 phases=1 Bus1=189150811.2 Bus2=189150915.2 LineCode=2_CLP_1PH_12KV_1 Length=0.128572 units=km
New Line.194179771$194179781 phases=1 Bus1=194179773.3 Bus2=194179783.3 LineCode=2_CLP_1PH_12KV_1 Length=0.119031 units=km
New Line.P5444842-2$211265268 phases=1 Bus1=16242792.3 Bus2=211265270.3 LineCode=350_AL_1PH_12KV_1 Length=0.146776 units=km
New Line.GS0432-2$276236468 phases=2 Bus1=276235762.1.2 Bus2=276236470.1.2 LineCode=1/0_JCN_2PH_12KV_2 Length=0.15652 units=km
New Line.306025243$ND306024873 phases=2 Bus1=306025246.1.3 Bus2=306024873.1.3 LineCode=1/0_JCN_2PH_12KV_2 Length=0.003704 units=km
New Line.84742744$84742680 phases=1 Bus1=84742682.1 Bus2=84742746.1 LineCode=2_CLP_1PH_12KV_1 Length=0.134965 units=km
New Line.84742709$ND94559123 phases=1 Bus1=84742711.1 Bus2=94559123.1 LineCode=2_CLP_1PH_12KV_1 Length=0.164946 units=km
New Line.94560100$94560075 phases=1 Bus1=94560102.2 Bus2=94560077.2 LineCode=2_CLP_1PH_12KV_1 Length=0.18094 units=km
New Line.721886E$200389325 phases=1 Bus1=129339601.2 Bus2=200389327.2 LineCode=2_JCN_1PH_12KV_1 Length=0.093823 units=km
New Line.219502835$219502860 phases=1 Bus1=219502837.2 Bus2=219502862.2 LineCode=1/0_JCN_1PH_12KV_1 Length=0.039289 units=km
New Line.219503010$219503151 phases=1 Bus1=219503012.1 Bus2=219503153.1 LineCode=1/0_JCN_1PH_12KV_1 Length=0.087163 units=km
New Line.ND306024873$306025218 phases=2 Bus1=306024873.1.3 Bus2=306025221.1.3 LineCode=1/0_JCN_2PH_12KV_2 Length=0.003722 units=km
New Line.ND306024873$306025268 phases=2 Bus1=306024873.1.3 Bus2=306025271.1.3 LineCode=1/0_JCN_2PH_12KV_2 Length=0.004705 units=km
New Line.ND94559123$84742769 phases=1 Bus1=94559123.1 Bus2=84742771.1 LineCode=2_CLP_1PH_12KV_1 Length=0.024673 units=km
New Line.194179781$P5603354-2 phases=1 Bus1=194179784.3 Bus2=104760343.3 LineCode=2_CLP_1PH_12KV_1 Length=0.001728 units=km
New Line.211265268$P5451720-1 phases=1 Bus1=211265271.3 Bus2=16249905.3 LineCode=350_AL_1PH_12KV_1 Length=0.001153 units=km
New Line.189150913$P5498598-2 phases=1 Bus1=189150916.2 Bus2=16259953.2 LineCode=2_CLP_1PH_12KV_1 Length=0.000788 units=km
New Line.276236468$P5779246-A phases=2 Bus1=276236471.1.2 Bus2=276235948.1.2 LineCode=1/0_JCN_2PH_12KV_2 Length=0.001606 units=km
New Line.GS0432-4$PME0674-4 phases=3 Bus1=276235780.1.2.3 Bus2=282761953.1.2.3 LineCode=1/0_JCN_3PH_12KV_3 Length=0.195439 units=km
New Line.PME5088-2$285295973 phases=1 Bus1=285295065.3 Bus2=285295976.3 LineCode=1/0_JCN_1PH_12KV_1 Length=0.000806 units=km
New Line.84742744$P5521048-1 phases=1 Bus1=84742747.1 Bus2=84742488.1 LineCode=2_CLP_1PH_12KV_1 Length=0.002873 units=km
New Line.200389325$P5586538-2 phases=1 Bus1=200389328.2 Bus2=129339635.2 LineCode=2_JCN_1PH_12KV_1 Length=0.000457 units=km
New Line.FD10628$BS9014-1 phases=2 Bus1=16249314.2.3 Bus2=16250539.2.3 LineCode=750_AL_2PH_12KV_2 Length=0.122202 units=km
New Line.B5016755-1$BS9014-1 phases=2 Bus1=16250540.2.3 Bus2=16230720.2.3 LineCode=750_AL_2PH_12KV_2 Length=0.0029 units=km
New Line.B5156179-1$FD10627 phases=1 Bus1=16249298.2 Bus2=16230936.2 LineCode=750_AL_1PH_12KV_1 Length=0.125979 units=km
New Line.4686161E$ND186356728 phases=3 Bus1=186356728.1.2.3 Bus2=186356705.1.2.3 LineCode=1/0_ACSR_3PH_12KV_3 Length=0.001152 units=km
New Line.B5016755-2$B5016754-1 phases=2 Bus1=16230729.2.3 Bus2=16230504.2.3 LineCode=750_AL_2PH_12KV_2 Length=0.168698 units=km
New Line.B5156179-2$B5156180-1 phases=1 Bus1=16230945.2 Bus2=16230864.2 LineCode=750_AL_1PH_12KV_1 Length=0.216495 units=km
New Line.94560075$P5562360-2 phases=1 Bus1=94560078.2 Bus2=94559441.2 LineCode=2_CLP_1PH_12KV_1 Length=0.002277 units=km
New Line.P5475978-2$P5475980-1 phases=1 Bus1=16251748.1 Bus2=16251829.1 LineCode=1/0_CLP_1PH_12KV_1 Length=0.158769 units=km
New Line.219502860$P5752477-2 phases=1 Bus1=219502863.2 Bus2=219502102.2 LineCode=1/0_JCN_1PH_12KV_1 Length=0.000707 units=km
New Line.P5752475-2$219503151 phases=1 Bus1=219503154.1 Bus2=219502522.1 LineCode=1/0_JCN_1PH_12KV_1 Length=0.00057 units=km
New Line.PME5088-1$285295998 phases=1 Bus1=285295083.1 Bus2=285296001.1 LineCode=1/0_JCN_1PH_12KV_1 Length=0.001528 units=km
New Line.306025268$306025168 phases=2 Bus1=306025270.1.3 Bus2=306025170.1.3 LineCode=1/0_JCN_2PH_12KV_2 Length=0.025976 units=km
New Line.306025218$306025193 phases=2 Bus1=306025220.1.3 Bus2=306025195.1.3 LineCode=1/0_JCN_2PH_12KV_2 Length=0.018065 units=km
New Line.84742769$ND94559761 phases=1 Bus1=84742772.1 Bus2=94559761.1 LineCode=2_CLP_1PH_12KV_1 Length=0.003038 units=km
New Line.4686161E$P5634220-1 phases=3 Bus1=186356706.1.2.3 Bus2=186356744.1.2.3 LineCode=1/0_JCN_3PH_12KV_3 Length=0.043276 units=km
New Line.B5334564-1$FD10629 phases=1 Bus1=16249434.3 Bus2=16239872.3 LineCode=1/0_CLP_1PH_12KV_1 Length=0.090421 units=km
New Line.B5156180-2$164978858 phases=1 Bus1=16230873.2 Bus2=164978860.2 LineCode=750_AL_1PH_12KV_1 Length=0.173558 units=km
New Line.B5016754-2$187720960 phases=2 Bus1=16230513.2.3 Bus2=187720962.2.3 LineCode=750_AL_2PH_12KV_2 Length=0.210438 units=km
New Line.187720960$B5016778-2 phases=2 Bus1=187720963.2.3 Bus2=16230585.2.3 LineCode=750_AL_2PH_12KV_2 Length=0.000587 units=km
New Line.B5156181-1$164978858 phases=1 Bus1=164978861.2 Bus2=16230792.2 LineCode=750_AL_1PH_12KV_1 Length=0.001742 units=km
New Line.B5334564-2$B5334688-1 phases=1 Bus1=16239881.3 Bus2=16239800.3 LineCode=1/0_CLP_1PH_12KV_1 Length=0.116582 units=km
New Line.285295973$285296352 phases=1 Bus1=285295975.3 Bus2=285296354.3 LineCode=1/0_JCN_1PH_12KV_1 Length=0.031389 units=km
New Line.ND94559761$P5521049-2 phases=1 Bus1=94559761.1 Bus2=84742565.1 LineCode=2_CLP_1PH_12KV_1 Length=0.003038 units=km
New Line.94559795$ND94559761 phases=1 Bus1=94559761.1 Bus2=94559798.1 LineCode=2_CLP_1PH_12KV_1 Length=0.007827 units=km
New Line.4076021E$ND165578795 phases=3 Bus1=165578561.1.2.3 Bus2=165578795.1.2.3 LineCode=1/0_JCN_3PH_12KV_3 Length=0.160893 units=km
New Line.189150901$P5498598-1 phases=1 Bus1=16259944.2 Bus2=189150904.2 LineCode=2_CLP_1PH_12KV_1 Length=0.000964 units=km
New Line.194179791$P5603354-1 phases=1 Bus1=104760334.3 Bus2=194179794.3 LineCode=2_CLP_1PH_12KV_1 Length=0.00163 units=km
New Line.211265256$P5451720-2 phases=1 Bus1=16249914.3 Bus2=211265259.3 LineCode=350_AL_1PH_12KV_1 Length=0.001223 units=km
New Line.PME0674-2$282762877 phases=1 Bus1=282761963.2 Bus2=282762879.2 LineCode=1/0_JCN_1PH_12KV_1 Length=0.02398 units=km
New Line.285296325$285295998 phases=1 Bus1=285296000.1 Bus2=285296327.1 LineCode=1/0_JCN_1PH_12KV_1 Length=0.030786 units=km
New Line.306025193$P5766420-1 phases=2 Bus1=306025196.1.3 Bus2=306024890.1.3 LineCode=1/0_JCN_2PH_12KV_2 Length=0.000855 units=km
New Line.306025168$P5766421-1 phases=2 Bus1=306025171.1.3 Bus2=306024963.1.3 LineCode=1/0_JCN_2PH_12KV_2 Length=0.002 units=km
New Line.P5562360-1$94560050 phases=1 Bus1=94559432.2 Bus2=94560053.2 LineCode=2_CLP_1PH_12KV_1 Length=0.001897 units=km
New Line.ND165578795$ND165578679 phases=3 Bus1=165578795.1.2.3 Bus2=165578679.1.2.3 LineCode=1/0_JCN_3PH_12KV_3 Length=0.0034 units=km
New Line.ND165578795$180014293 phases=3 Bus1=165578795.1.2.3 Bus2=180014295.1.2.3 LineCode=1/0_JCN_3PH_12KV_3 Length=0.036008 units=km
New Line.P5752477-1$219502885 phases=1 Bus1=219502093.2 Bus2=219502888.2 LineCode=1/0_JCN_1PH_12KV_1 Length=0.00122 units=km
New Line.P5752475-1$219503192 phases=1 Bus1=219502513.1 Bus2=219503195.1 LineCode=1/0_JCN_1PH_12KV_1 Length=0.000408 units=km
New Line.PME0674-1$282762850 phases=1 Bus1=282761981.3 Bus2=282762852.3 LineCode=1/0_JCN_1PH_12KV_1 Length=0.02423 units=km
New Line.PME0674-3$282762902 phases=1 Bus1=282761972.1 Bus2=282762904.1 LineCode=1/0_JCN_1PH_12KV_1 Length=0.023979 units=km
New Line.285296352$285296377 phases=1 Bus1=285296355.3 Bus2=285296380.3 LineCode=1/0_JCN_1PH_12KV_1 Length=0.018404 units=km
New Line.94559859$94559795 phases=1 Bus1=94559797.1 Bus2=94559861.1 LineCode=2_CLP_1PH_12KV_1 Length=0.179013 units=km
New Line.P5451721-2$211265256 phases=1 Bus1=211265258.3 Bus2=16250130.3 LineCode=350_AL_1PH_12KV_1 Length=0.132097 units=km
New Line.P5631006-2$ND165578679 phases=2 Bus1=165578679.2.3 Bus2=165578703.2.3 LineCode=1/0_JCN_2PH_12KV_2 Length=0.007534 units=km
New Line.189150871$189150901 phases=1 Bus1=189150903.2 Bus2=189150873.2 LineCode=2_CLP_1PH_12KV_1 Length=0.108273 units=km
New Line.194179791$194179801 phases=1 Bus1=194179793.3 Bus2=194179803.3 LineCode=2_CLP_1PH_12KV_1 Length=0.139894 units=km
New Line.282762877$282762954 phases=1 Bus1=282762880.2 Bus2=282762957.2 LineCode=1/0_JCN_1PH_12KV_1 Length=0.020835 units=km
New Line.ND285295567$285296325 phases=1 Bus1=285296328.1 Bus2=285295567.1 LineCode=1/0_JCN_1PH_12KV_1 Length=0.006968 units=km
New Line.94560050$ND94559695 phases=1 Bus1=94560052.2 Bus2=94559695.2 LineCode=2_CLP_1PH_12KV_1 Length=0.106734 units=km
New Line.P5521049-1$94559768 phases=1 Bus1=84742556.1 Bus2=94559771.1 LineCode=2_CLP_1PH_12KV_1 Length=0.010585 units=km
New Line.180014293$P5631007 phases=3 Bus1=180014296.1.2.3 Bus2=165578813.1.2.3 LineCode=1/0_JCN_3PH_12KV_3 Length=0.008202 units=km
New Line.ND94559695$194179811 phases=1 Bus1=94559695.2 Bus2=194179813.2 LineCode=2_CLP_1PH_12KV_1 Length=0.139738 units=km
New Line.219502885$219502910 phases=1 Bus1=219502887.2 Bus2=219502912.2 LineCode=1/0_JCN_1PH_12KV_1 Length=0.033062 units=km
New Line.219503192$219503219 phases=1 Bus1=219503194.1 Bus2=219503221.1 LineCode=1/0_JCN_1PH_12KV_1 Length=0.124818 units=km
New Line.282762902$ND282762830 phases=1 Bus1=282762905.1 Bus2=282762830.1 LineCode=1/0_JCN_1PH_12KV_1 Length=0.011476 units=km
New Line.282762850$282762979 phases=1 Bus1=282762853.3 Bus2=282762982.3 LineCode=1/0_JCN_1PH_12KV_1 Length=0.018347 units=km
New Line.285296271$ND285295567 phases=1 Bus1=285295567.1 Bus2=285296274.1 LineCode=1/0_JCN_1PH_12KV_1 Length=0.014435 units=km
New Line.285296298$ND285295567 phases=1 Bus1=285295567.1 Bus2=285296301.1 LineCode=1/0_JCN_1PH_12KV_1 Length=0.013839 units=km
New Line.FD10630$ND16271952 phases=1 Bus1=16249479.2 Bus2=16271952.2 LineCode=2_CLP_1PH_12KV_1 Length=0.220812 units=km
New Line.ND16271952$ND16271953 phases=1 Bus1=16271952.2 Bus2=16271953.2 LineCode=2_CLP_1PH_12KV_1 Length=0.101329 units=km
New Line.PME3774-2$4568657E phases=3 Bus1=179822397.1.2.3 Bus2=179822612.1.2.3 LineCode=1/0_JCN_3PH_12KV_3 Length=0.059788 units=km
New Line.ND99402457$BF13284 phases=3 Bus1=99402457.1.2.3 Bus2=210625377.1.2.3 LineCode=4_ACSR_3PH_12KV_3 Length=0.019503 units=km
New Line.B5156182-2$ND16271953 phases=1 Bus1=16271953.2 Bus2=16240097.2 LineCode=2_CLP_1PH_12KV_1 Length=0.003098 units=km
New Line.ND16271953$ND16270838 phases=1 Bus1=16271953.2 Bus2=16270838.2 LineCode=2_CLP_1PH_12KV_1 Length=0.022531 units=km
New Line.187720972$B5016778-1 phases=2 Bus1=16230576.2.3 Bus2=187720975.2.3 LineCode=750_AL_2PH_12KV_2 Length=0.000906 units=km
New Line.285296377$285296402 phases=1 Bus1=285296379.3 Bus2=285296404.3 LineCode=1/0_JCN_1PH_12KV_1 Length=0.045634 units=km
New Line.P5766421-2$306025141 phases=2 Bus1=306024972.1.3 Bus2=306025144.1.3 LineCode=1/0_JCN_2PH_12KV_2 Length=0.001242 units=km
New Line.P5562354-2$94559859 phases=1 Bus1=94559862.1 Bus2=94559057.1 LineCode=2_CLP_1PH_12KV_1 Length=0.002089 units=km
New Line.ND94559695$94560000 phases=1 Bus1=94559695.2 Bus2=94560002.2 LineCode=2_CLP_1PH_12KV_1 Length=0.071046 units=km
New Line.ND94559695$94560025 phases=1 Bus1=94559695.2 Bus2=94560027.2 LineCode=2_CLP_1PH_12KV_1 Length=0.085284 units=km
New Line.194179801$P5603355-2 phases=1 Bus1=194179804.3 Bus2=104760411.3 LineCode=2_CLP_1PH_12KV_1 Length=0.001035 units=km
New Line.189150871$P5498597-1 phases=1 Bus1=189150874.2 Bus2=16259800.2 LineCode=2_CLP_1PH_12KV_1 Length=0.000922 units=km
New Line.B5156183-1$ND16270838 phases=1 Bus1=16270838.2 Bus2=16240160.2 LineCode=2_CLP_1PH_12KV_1 Length=0.002413 units=km
New Line.B5156185-2$ND16270838 phases=1 Bus1=16270838.2 Bus2=16240241.2 LineCode=2_CLP_1PH_12KV_1 Length=0.154212 units=km
New Line.4367682E$BF13284 phases=3 Bus1=210625376.1.2.3 Bus2=16259722.1.2.3 LineCode=4_ACSR_3PH_12KV_3 Length=0.02233 units=km
New Line.B5016777-2$187720972 phases=2 Bus1=187720974.2.3 Bus2=16230657.2.3 LineCode=750_AL_2PH_12KV_2 Length=0.109551 units=km
New Line.P5342201-1$4568660E phases=3 Bus1=187876082.1.2.3 Bus2=16240781.1.2.3 LineCode=350_AL_3PH_12KV_3 Length=0.02858 units=km
New Line.B5156182-1$B5309691-1 phases=1 Bus1=16240088.2 Bus2=16239944.2 LineCode=2_CLP_1PH_12KV_1 Length=0.068328 units=km
New Line.PME3774-1$ND179822756 phases=3 Bus1=179822621.1.2.3 Bus2=179822756.1.2.3 LineCode=1/0_JCN_3PH_12KV_3 Length=0.05449 units=km
New Line.PME3774-4$193433251 phases=3 Bus1=179822603.1.2.3 Bus2=193433254.1.2.3 LineCode=1/0_JCN_3PH_12KV_3 Length=0.001918 units=km
New Line.282762954$ND282762788 phases=1 Bus1=282762956.2 Bus2=282762788.2 LineCode=1/0_JCN_1PH_12KV_1 Length=0.005116 units=km
New Line.ND282762830$282762927 phases=1 Bus1=282762830.1 Bus2=282762930.1 LineCode=1/0_JCN_1PH_12KV_1 Length=0.009135 units=km
New Line.ND282762830$282763020 phases=1 Bus1=282762830.1 Bus2=282763023.1 LineCode=1/0_JCN_1PH_12KV_1 Length=0.001181 units=km
New Line.94559768$94559834 phases=1 Bus1=94559770.1 Bus2=94559836.1 LineCode=2_CLP_1PH_12KV_1 Length=0.112907 units=km
New Line.194179811$P5603356-1 phases=1 Bus1=194179814.2 Bus2=104760105.2 LineCode=2_CLP_1PH_12KV_1 Length=0.001578 units=km
New Line.P5451721-1$ND185090693 phases=1 Bus1=16250121.3 Bus2=185090693.3 LineCode=350_AL_1PH_12KV_1 Length=0.009122 units=km
New Line.219502910$P5752478-2 phases=1 Bus1=219502913.2 Bus2=219502034.2 LineCode=1/0_JCN_1PH_12KV_1 Length=0.001276 units=km
New Line.B5156185-1$B5156186-2 phases=1 Bus1=16240232.2 Bus2=16240025.2 LineCode=2_CLP_1PH_12KV_1 Length=0.061573 units=km
New Line.B5156184-2$B5156183-2 phases=1 Bus1=16240169.2 Bus2=16250476.2 LineCode=2_CLP_1PH_12KV_1 Length=0.132803 units=km
New Line.179822830$ND179822756 phases=3 Bus1=179822756.1.2.3 Bus2=179822832.1.2.3 LineCode=1/0_JCN_3PH_12KV_3 Length=0.209768 units=km
New Line.ND179822756$179823319 phases=3 Bus1=179822756.1.2.3 Bus2=179823321.1.2.3 LineCode=1/0_JCN_3PH_12KV_3 Length=0.063126 units=km
New Line.B5016777-1$B5016776-2 phases=2 Bus1=16230648.2.3 Bus2=16230441.2.3 LineCode=750_AL_2PH_12KV_2 Length=0.130246 units=km
New Line.193433200$193433251 phases=3 Bus1=193433253.1.2.3 Bus2=193433202.1.2.3 LineCode=1/0_JCN_3PH_12KV_3 Length=0.191438 units=km
New Line.219503219$P5752476-1 phases=1 Bus1=219503222.1 Bus2=219502598.1 LineCode=1/0_JCN_1PH_12KV_1 Length=0.00152 units=km
New Line.ND282762788$282763247 phases=1 Bus1=282762788.2 Bus2=282763249.2 LineCode=1/0_JCN_1PH_12KV_1 Length=0.103676 units=km
New Line.ND282762788$282763297 phases=1 Bus1=282762788.2 Bus2=282763299.2 LineCode=1/0_JCN_1PH_12KV_1 Length=0.031057 units=km
New Line.282762979$282763322 phases=1 Bus1=282762981.3 Bus2=282763324.3 LineCode=1/0_JCN_1PH_12KV_1 Length=0.108361 units=km
New Line.285296402$P5795970-1 phases=1 Bus1=285296405.3 Bus2=285295586.3 LineCode=1/0_JCN_1PH_12KV_1 Length=0.001771 units=km
New Line.285296035$285296298 phases=1 Bus1=285296300.1 Bus2=285296037.1 LineCode=1/0_JCN_1PH_12KV_1 Length=0.074234 units=km
New Line.285296246$285296271 phases=1 Bus1=285296273.1 Bus2=285296248.1 LineCode=1/0_JCN_1PH_12KV_1 Length=0.007848 units=km
New Line.306025141$306025114 phases=2 Bus1=306025143.1.3 Bus2=306025116.1.3 LineCode=1/0_JCN_2PH_12KV_2 Length=0.040435 units=km
New Line.94560025$P5562362-1 phases=1 Bus1=94560028.2 Bus2=94559526.2 LineCode=2_CLP_1PH_12KV_1 Length=0.00275 units=km
New Line.94560000$P5562363-1 phases=1 Bus1=94560003.2 Bus2=94559617.2 LineCode=2_CLP_1PH_12KV_1 Length=0.007589 units=km
New Line.ND185090693$P5451722-1 phases=1 Bus1=185090693.3 Bus2=16249977.3 LineCode=350_AL_1PH_12KV_1 Length=0.081503 units=km
New Line.ND185090693$P5451723-1 phases=1 Bus1=185090693.3 Bus2=16250049.3 LineCode=350_AL_1PH_12KV_1 Length=0.251008 units=km
New Line.345471E$P5475996-1 phases=2 Bus1=16251889.2.3 Bus2=16251905.2.3 LineCode=2_CLP_2PH_12KV_2 Length=0.201939 units=km
New Line.282763020$282763047 phases=1 Bus1=282763022.1 Bus2=282763049.1 LineCode=1/0_JCN_1PH_12KV_1 Length=0.145796 units=km
New Line.282762927$282763222 phases=1 Bus1=282762929.1 Bus2=282763224.1 LineCode=1/0_JCN_1PH_12KV_1 Length=0.056152 units=km
New Line.94559834$P5562364-1 phases=1 Bus1=94559837.1 Bus2=94558919.1 LineCode=2_CLP_1PH_12KV_1 Length=0.002132 units=km
New Line.P5562354-1$94559898 phases=1 Bus1=94559048.1 Bus2=94559901.1 LineCode=2_CLP_1PH_12KV_1 Length=0.00219 units=km
New Line.282763297$P5795983-1 phases=1 Bus1=282763300.2 Bus2=282762117.2 LineCode=1/0_JCN_1PH_12KV_1 Length=0.00113 units=km
New Line.282763322$P5795984-1 phases=1 Bus1=282763325.3 Bus2=282762195.3 LineCode=1/0_JCN_1PH_12KV_1 Length=0.000973 units=km
New Line.282763247$P5795981-1 phases=1 Bus1=282763250.2 Bus2=282762715.2 LineCode=1/0_JCN_1PH_12KV_1 Length=0.001663 units=km
New Line.P5795965-1$285296035 phases=1 Bus1=285296038.1 Bus2=285295191.1 LineCode=1/0_JCN_1PH_12KV_1 Length=0.000232 units=km
New Line.P5795967-2$285296246 phases=1 Bus1=285296249.1 Bus2=285295496.1 LineCode=1/0_JCN_1PH_12KV_1 Length=0.001663 units=km
New Line.179823319$P5656202-A phases=3 Bus1=179823322.1.2.3 Bus2=179822902.1.2.3 LineCode=1/0_JCN_3PH_12KV_3 Length=0.002083 units=km
New Line.179822830$P5656201-A phases=3 Bus1=179822833.1.2.3 Bus2=181874517.1.2.3 LineCode=1/0_JCN_3PH_12KV_3 Length=0.002485 units=km
New Line.4568662E$P5568333-1 phases=3 Bus1=16249645.1.2.3 Bus2=187876169.1.2.3 LineCode=2_CLP_3PH_12KV_3 Length=0.038751 units=km
New Line.561912E$2174825E phases=4 Bus1=16229730.0.1.2.3 Bus2=169502629.0.1.2.3 LineCode=653_ACSR_3PH_653_ACSR_N_12KV_4 Length=0.100993 units=km
New Line.2174826E$561912E phases=4 Bus1=169502629.0.1.2.3 Bus2=16229779.0.1.2.3 LineCode=653_ACSR_3PH_653_ACSR_N_12KV_4 Length=0.188104 units=km
...

! Switches
New Line.1399642E:BF13282 phases=3 Bus1=210531571.1.2.3 Bus2=210531572.1.2.3 switch=y r1=0.001 x1=0.001 r0=0.001 x0=0.001 Length=0.001 units=km
New Line.951180E:BF15558 phases=2 Bus1=263994667.1.2 Bus2=263994668.1.2 switch=y r1=0.001 x1=0.001 r0=0.001 x0=0.001 Length=0.001 units=km
New Line.908476E:BF10512 phases=3 Bus1=17478121.1.2.3 Bus2=17478122.1.2.3 switch=y r1=0.001 x1=0.001 r0=0.001 x0=0.001 Length=0.001 units=km
New Line.1249911E:BF13630 phases=3 Bus1=263994725.1.2.3 Bus2=263994726.1.2.3 switch=y r1=0.001 x1=0.001 r0=0.001 x0=0.001 Length=0.001 units=km
New Line.GS0433-1$GS0433-2 phases=3 Bus1=276235521.1.2.3 Bus2=276235522.1.2.3 switch=y r1=0.001 x1=0.001 r0=0.001 x0=0.001 Length=0.001 units=km
New Line.GS0433-2$GS0433-3 phases=3 Bus1=276235522.1.2.3 Bus2=276235528.1.2.3 switch=y r1=0.001 x1=0.001 r0=0.001 x0=0.001 Length=0.001 units=km
New Line.GS0433-3$GS0433-4 phases=3 Bus1=276235528.1.2.3 Bus2=276235534.1.2.3 switch=y r1=0.001 x1=0.001 r0=0.001 x0=0.001 Length=0.001 units=km
New Line.PME5088-4$PME5088-3 phases=3 Bus1=285295041.1.2.3 Bus2=285295048.1.2.3 switch=y r1=0.001 x1=0.001 r0=0.001 x0=0.001 Length=0.001 units=km
New Line.PME5649-4$PME5649-1 phases=3 Bus1=219501496.1.2.3 Bus2=219501497.1.2.3 switch=y r1=0.001 x1=0.001 r0=0.001 x0=0.001 Length=0.001 units=km
New Line.PME5649-4$PME5649-3 phases=3 Bus1=219501496.1.2.3 Bus2=219501503.1.2.3 switch=y r1=0.001 x1=0.001 r0=0.001 x0=0.001 Length=0.001 units=km
New Line.5779241:P5779241-T phases=2 Bus1=276236321.2.3 Bus2=276236320.2.3 switch=y r1=0.001 x1=0.001 r0=0.001 x0=0.001 Length=0.001 units=km
New Line.5795963:PME5088-2 phases=3 Bus1=285295041.1.2.3 Bus2=285295065.1.2.3 switch=y r1=0.001 x1=0.001 r0=0.001 x0=0.001 Length=0.001 units=km
New Line.5795963:PME5088-1 phases=3 Bus1=285295042.1.2.3 Bus2=285295083.1.2.3 switch=y r1=0.001 x1=0.001 r0=0.001 x0=0.001 Length=0.001 units=km
New Line.5779246:P5779246-T phases=2 Bus1=276235932.1.2 Bus2=276235931.1.2 switch=y r1=0.001 x1=0.001 r0=0.001 x0=0.001 Length=0.001 units=km
New Line.2299374E:PS1997 phases=3 Bus1=14016881.1.2.3 Bus2=14016880.1.2.3 switch=y r1=0.001 x1=0.001 r0=0.001 x0=0.001 Length=0.001 units=km enabled=false
New Line.5795975:PME0674-2 phases=3 Bus1=282761939.1.2.3 Bus2=282761963.1.2.3 switch=y r1=0.001 x1=0.001 r0=0.001 x0=0.001 Length=0.001 units=km
New Line.5795975:PME0674-3 phases=3 Bus1=282761946.1.2.3 Bus2=282761972.1.2.3 switch=y r1=0.001 x1=0.001 r0=0.001 x0=0.001 Length=0.001 units=km
New Line.5795975:PME0674-1 phases=3 Bus1=282761940.1.2.3 Bus2=282761981.1.2.3 switch=y r1=0.001 x1=0.001 r0=0.001 x0=0.001 Length=0.001 units=km
New Line.5467696:FC7696-1 phases=1 Bus1=17449081.1 Bus2=17449082.1 switch=y r1=0.001 x1=0.001 r0=0.001 x0=0.001 Length=0.001 units=km
New Line.5795972:P5795972-T phases=1 Bus1=285295700.3 Bus2=285295699.3 switch=y r1=0.001 x1=0.001 r0=0.001 x0=0.001 Length=0.001 units=km
New Line.5444839:PME4839-2 phases=3 Bus1=16249762.1.2.3 Bus2=16249786.1.2.3 switch=y r1=0.001 x1=0.001 r0=0.001 x0=0.001 Length=0.001 units=km
New Line.5444839:PME4839-3 phases=3 Bus1=16249769.1.2.3 Bus2=16249795.1.2.3 switch=y r1=0.001 x1=0.001 r0=0.001 x0=0.001 Length=0.001 units=km
New Line.5444839:PME4839-1 phases=3 Bus1=16249763.1.2.3 Bus2=16249804.1.2.3 switch=y r1=0.001 x1=0.001 r0=0.001 x0=0.001 Length=0.001 units=km
New Line.5752468:PME5649-2 phases=3 Bus1=219501496.1.2.3 Bus2=219501520.1.2.3 switch=y r1=0.001 x1=0.001 r0=0.001 x0=0.001 Length=0.001 units=km
New Line.5752468:PME5649-3 phases=3 Bus1=219501503.1.2.3 Bus2=219501529.1.2.3 switch=y r1=0.001 x1=0.001 r0=0.001 x0=0.001 Length=0.001 units=km
New Line.5752468:PME5649-1 phases=3 Bus1=219501497.1.2.3 Bus2=219501538.1.2.3 switch=y r1=0.001 x1=0.001 r0=0.001 x0=0.001 Length=0.001 units=km
New Line.5766417:PME6553-2 phases=2 Bus1=305535172.1.3 Bus2=305535163.1.3 switch=y r1=0.001 x1=0.001 r0=0.001 x0=0.001 Length=0.001 units=km
New Line.CAB_4783976E:4783976E phases=3 Bus1=16229808.1.2.3 Bus2=16229790.1.2.3 switch=y r1=0.001 x1=0.001 r0=0.001 x0=0.001 Length=0.001 units=km
New Line.CAB_7279T:7279T phases=3 Bus1=165702745.1.2.3 Bus2=165702728.1.2.3 switch=y r1=0.001 x1=0.001 r0=0.001 x0=0.001 Length=0.001 units=km
New Line.CAB_4214990E:4214990E phases=3 Bus1=16230418.1.2.3 Bus2=16230400.1.2.3 switch=y r1=0.001 x1=0.001 r0=0.001 x0=0.001 Length=0.001 units=km
New Line.CAB_1046947E:1046947E phases=3 Bus1=16230341.1.2.3 Bus2=16230325.1.2.3 switch=y r1=0.001 x1=0.001 r0=0.001 x0=0.001 Length=0.001 units=km
New Line.CAB_1368429E:1368429E phases=3 Bus1=16260425.1.2.3 Bus2=16260409.1.2.3 switch=y r1=0.001 x1=0.001 r0=0.001 x0=0.001 Length=0.001 units=km
New Line.CAB_4692202E:4692202E phases=3 Bus1=101592343.1.2.3 Bus2=101592326.1.2.3 switch=y r1=0.001 x1=0.001 r0=0.001 x0=0.001 Length=0.001 units=km
New Line.CAB_1989191E:1989191E phases=3 Bus1=83820660.1.2.3 Bus2=83820643.1.2.3 switch=y r1=0.001 x1=0.001 r0=0.001 x0=0.001 Length=0.001 units=km
New Line.CAB_4215001E:4215001E phases=3 Bus1=16243385.1.2.3 Bus2=16243369.1.2.3 switch=y r1=0.001 x1=0.001 r0=0.001 x0=0.001 Length=0.001 units=km
New Line.CAB_1428305E:1428305E phases=3 Bus1=16240367.1.2.3 Bus2=16240351.1.2.3 switch=y r1=0.001 x1=0.001 r0=0.001 x0=0.001 Length=0.001 units=km
New Line.CAB_345476E:345476E phases=3 Bus1=16243435.1.2.3 Bus2=16243419.1.2.3 switch=y r1=0.001 x1=0.001 r0=0.001 x0=0.001 Length=0.001 units=km
New Line.CAB_580248E:580248E phases=3 Bus1=17422380.1.2.3 Bus2=17422362.1.2.3 switch=y r1=0.001 x1=0.001 r0=0.001 x0=0.001 Length=0.001 units=km
New Line.CAB_4316122E:4316122E phases=3 Bus1=17424086.1.2.3 Bus2=17424070.1.2.3 switch=y r1=0.001 x1=0.001 r0=0.001 x0=0.001 Length=0.001 units=km
New Line.CAB_4902527E:4902527E phases=3 Bus1=16240842.1.2.3 Bus2=265278381.1.2.3 switch=y r1=0.001 x1=0.001 r0=0.001 x0=0.001 Length=0.001 units=km
New Line.CAB_X7366E:X7366E phases=3 Bus1=16243743.1.2.3 Bus2=16243727.1.2.3 switch=y r1=0.001 x1=0.001 r0=0.001 x0=0.001 Length=0.001 units=km
New Line.CAB_2287520E:2287520E phases=3 Bus1=111384325.1.2.3 Bus2=111384306.1.2.3 switch=y r1=0.001 x1=0.001 r0=0.001 x0=0.001 Length=0.001 units=km
New Line.CAB_1428038E:1428038E phases=3 Bus1=16243718.1.2.3 Bus2=16243702.1.2.3 switch=y r1=0.001 x1=0.001 r0=0.001 x0=0.001 Length=0.001 units=km
New Line.CAB_4223891E:4223891E phases=3 Bus1=16243818.1.2.3 Bus2=16243802.1.2.3 switch=y r1=0.001 x1=0.001 r0=0.001 x0=0.001 Length=0.001 units=km
New Line.CAB_4898087E:4898087E phases=3 Bus1=192729916.1.2.3 Bus2=192729935.1.2.3 switch=y r1=0.001 x1=0.001 r0=0.001 x0=0.001 Length=0.001 units=km
New Line.CAB_4620308E:4620308E phases=3 Bus1=16242374.1.2.3 Bus2=200230729.1.2.3 switch=y r1=0.001 x1=0.001 r0=0.001 x0=0.001 Length=0.001 units=km
New Line.CAB_561912E:561912E phases=3 Bus1=169502629.1.2.3 Bus2=17444451.1.2.3 switch=y r1=0.001 x1=0.001 r0=0.001 x0=0.001 Length=0.001 units=km
New Line.CAB_2174826E:2174826E phases=3 Bus1=16229779.1.2.3 Bus2=16229761.1.2.3 switch=y r1=0.001 x1=0.001 r0=0.001 x0=0.001 Length=0.001 units=km
New Line.CAB_959888E:959888E phases=3 Bus1=16248971.1.2.3 Bus2=16248953.1.2.3 switch=y r1=0.001 x1=0.001 r0=0.001 x0=0.001 Length=0.001 units=km
New Line.CAB_561683E:561683E phases=3 Bus1=212523509.1.2.3 Bus2=212523492.1.2.3 switch=y r1=0.001 x1=0.001 r0=0.001 x0=0.001 Length=0.001 units=km
New Line.CAB_4367948E:4367948E phases=3 Bus1=16259431.1.2.3 Bus2=16259415.1.2.3 switch=y r1=0.001 x1=0.001 r0=0.001 x0=0.001 Length=0.001 units=km
New Line.CAB_2891T:2891T phases=3 Bus1=16229835.1.2.3 Bus2=16229819.1.2.3 switch=y r1=0.001 x1=0.001 r0=0.001 x0=0.001 Length=0.001 units=km
New Line.CAB_566732E:566732E phases=3 Bus1=16230114.1.2.3 Bus2=16230096.1.2.3 switch=y r1=0.001 x1=0.001 r0=0.001 x0=0.001 Length=0.001 units=km
New Line.CAB_2191150E:2191150E phases=3 Bus1=16248998.1.2.3 Bus2=16248982.1.2.3 switch=y r1=0.001 x1=0.001 r0=0.001 x0=0.001 Length=0.001 units=km
New Line.CAB_2191148E:2191148E phases=3 Bus1=16249023.1.2.3 Bus2=16249007.1.2.3 switch=y r1=0.001 x1=0.001 r0=0.001 x0=0.001 Length=0.001 units=km
New Line.CAB_4367947E:4367947E phases=3 Bus1=16259406.1.2.3 Bus2=16259390.1.2.3 switch=y r1=0.001 x1=0.001 r0=0.001 x0=0.001 Length=0.001 units=km
New Line.CAB_4473518E:4473518E phases=3 Bus1=16229914.1.2.3 Bus2=16229898.1.2.3 switch=y r1=0.001 x1=0.001 r0=0.001 x0=0.001 Length=0.001 units=km
New Line.CAB_629828E:629828E phases=3 Bus1=16249048.1.2.3 Bus2=16249032.1.2.3 switch=y r1=0.001 x1=0.001 r0=0.001 x0=0.001 Length=0.001 units=km
New Line.CAB_4662761E:4662761E phases=3 Bus1=16229939.1.2.3 Bus2=16229923.1.2.3 switch=y r1=0.001 x1=0.001 r0=0.001 x0=0.001 Length=0.001 units=km
New Line.CAB_4576159E:4576159E phases=3 Bus1=16252499.1.2.3 Bus2=16252483.1.2.3 switch=y r1=0.001 x1=0.001 r0=0.001 x0=0.001 Length=0.001 units=km
New Line.CAB_4367943E:4367943E phases=3 Bus1=16259672.1.2.3 Bus2=16259656.1.2.3 switch=y r1=0.001 x1=0.001 r0=0.001 x0=0.001 Length=0.001 units=km
New Line.CAB_4649732E:4649732E phases=3 Bus1=101993133.1.2.3 Bus2=101993116.1.2.3 switch=y r1=0.001 x1=0.001 r0=0.001 x0=0.001 Length=0.001 units=km
New Line.CAB_7280T:7280T phases=3 Bus1=16248803.1.2.3 Bus2=16248787.1.2.3 switch=y r1=0.001 x1=0.001 r0=0.001 x0=0.001 Length=0.001 units=km
New Line.CAB_1229255E:1229255E phases=3 Bus1=16252524.1.2.3 Bus2=16252508.1.2.3 switch=y r1=0.001 x1=0.001 r0=0.001 x0=0.001 Length=0.001 units=km
New Line.CAB_1229256E:1229256E phases=3 Bus1=16252549.1.2.3 Bus2=16252533.1.2.3 switch=y r1=0.001 x1=0.001 r0=0.001 x0=0.001 Length=0.001 units=km
New Line.CAB_4367944E:4367944E phases=3 Bus1=16259381.1.2.3 Bus2=16259365.1.2.3 switch=y r1=0.001 x1=0.001 r0=0.001 x0=0.001 Length=0.001 units=km
New Line.CAB_6183T:6183T phases=3 Bus1=16229889.1.2.3 Bus2=16229873.1.2.3 switch=y r1=0.001 x1=0.001 r0=0.001 x0=0.001 Length=0.001 units=km
New Line.CAB_4565631E:4565631E phases=3 Bus1=16249073.1.2.3 Bus2=16249057.1.2.3 switch=y r1=0.001 x1=0.001 r0=0.001 x0=0.001 Length=0.001 units=km
New Line.CAB_4367941E:4367941E phases=3 Bus1=16259331.1.2.3 Bus2=16259315.1.2.3 switch=y r1=0.001 x1=0.001 r0=0.001 x0=0.001 Length=0.001 units=km
New Line.CAB_1989172E:1989172E phases=3 Bus1=206702254.1.2.3 Bus2=206702235.1.2.3 switch=y r1=0.001 x1=0.001 r0=0.001 x0=0.001 Length=0.001 units=km
New Line.CAB_4802576E:4802576E phases=3 Bus1=206714373.1.2.3 Bus2=206714356.1.2.3 switch=y r1=0.001 x1=0.001 r0=0.001 x0=0.001 Length=0.001 units=km
New Line.CAB_1989171E:1989171E phases=3 Bus1=16248913.1.2.3 Bus2=16248895.1.2.3 switch=y r1=0.001 x1=0.001 r0=0.001 x0=0.001 Length=0.001 units=km
New Line.CAB_4671984E:4671984E phases=3 Bus1=16243256.1.2.3 Bus2=16243240.1.2.3 switch=y r1=0.001 x1=0.001 r0=0.001 x0=0.001 Length=0.001 units=km
New Line.CAB_1635139E:1635139E phases=3 Bus1=16260273.1.2.3 Bus2=16260255.1.2.3 switch=y r1=0.001 x1=0.001 r0=0.001 x0=0.001 Length=0.001 units=km
New Line.CAB_1351815E:1351815E phases=3 Bus1=16252016.1.2.3 Bus2=16252000.1.2.3 switch=y r1=0.001 x1=0.001 r0=0.001 x0=0.001 Length=0.001 units=km
New Line.CAB_4367942E:4367942E phases=3 Bus1=16259356.1.2.3 Bus2=16259340.1.2.3 switch=y r1=0.001 x1=0.001 r0=0.001 x0=0.001 Length=0.001 units=km
New Line.CAB_7275T:7275T phases=3 Bus1=16230039.1.2.3 Bus2=16230023.1.2.3 switch=y r1=0.001 x1=0.001 r0=0.001 x0=0.001 Length=0.001 units=km
New Line.CAB_1229171E:1229171E phases=3 Bus1=16230191.1.2.3 Bus2=16230175.1.2.3 switch=y r1=0.001 x1=0.001 r0=0.001 x0=0.001 Length=0.001 units=km
New Line.CAB_730732E:730732E phases=3 Bus1=16257672.1.2.3 Bus2=16257656.1.2.3 switch=y r1=0.001 x1=0.001 r0=0.001 x0=0.001 Length=0.001 units=km
New Line.CAB_1229172E:1229172E phases=3 Bus1=16252574.1.2.3 Bus2=16252558.1.2.3 switch=y r1=0.001 x1=0.001 r0=0.001 x0=0.001 Length=0.001 units=km
New Line.CAB_730733E:730733E phases=3 Bus1=16257697.1.2.3 Bus2=16257681.1.2.3 switch=y r1=0.001 x1=0.001 r0=0.001 x0=0.001 Length=0.001 units=km
New Line.CAB_7285T:7285T phases=3 Bus1=16230166.1.2.3 Bus2=16230150.1.2.3 switch=y r1=0.001 x1=0.001 r0=0.001 x0=0.001 Length=0.001 units=km
New Line.CAB_730735E:730735E phases=3 Bus1=16259772.1.2.3 Bus2=16259756.1.2.3 switch=y r1=0.001 x1=0.001 r0=0.001 x0=0.001 Length=0.001 units=km
New Line.CAB_7283T:7283T phases=3 Bus1=16230141.1.2.3 Bus2=16230125.1.2.3 switch=y r1=0.001 x1=0.001 r0=0.001 x0=0.001 Length=0.001 units=km
New Line.CAB_1823358E:1823358E phases=3 Bus1=16230241.1.2.3 Bus2=16230225.1.2.3 switch=y r1=0.001 x1=0.001 r0=0.001 x0=0.001 Length=0.001 units=km
New Line.CAB_696767E:696767E phases=3 Bus1=16230291.1.2.3 Bus2=16230275.1.2.3 switch=y r1=0.001 x1=0.001 r0=0.001 x0=0.001 Length=0.001 units=km
New Line.CAB_696768E:696768E phases=3 Bus1=16230316.1.2.3 Bus2=16230300.1.2.3 switch=y r1=0.001 x1=0.001 r0=0.001 x0=0.001 Length=0.001 units=km
New Line.CAB_715279E:715279E phases=3 Bus1=16250892.1.2.3 Bus2=16250874.1.2.3 switch=y r1=0.001 x1=0.001 r0=0.001 x0=0.001 Length=0.001 units=km
New Line.CAB_1368423E:1368423E phases=3 Bus1=16252041.1.2.3 Bus2=16252025.1.2.3 switch=y r1=0.001 x1=0.001 r0=0.001 x0=0.001 Length=0.001 units=km
New Line.CAB_715280E:715280E phases=3 Bus1=16249398.1.2.3 Bus2=16249380.1.2.3 switch=y r1=0.001 x1=0.001 r0=0.001 x0=0.001 Length=0.001 units=km
New Line.CAB_4490366E:4490366E phases=3 Bus1=16260400.1.2.3 Bus2=16260384.1.2.3 switch=y r1=0.001 x1=0.001 r0=0.001 x0=0.001 Length=0.001 units=km
New Line.CAB_4548679E:4548679E phases=3 Bus1=106396870.1.2.3 Bus2=106396853.1.2.3 switch=y r1=0.001 x1=0.001 r0=0.001 x0=0.001 Length=0.001 units=km
New Line.CAB_4448251E:4448251E phases=3 Bus1=16252066.1.2.3 Bus2=16252050.1.2.3 switch=y r1=0.001 x1=0.001 r0=0.001 x0=0.001 Length=0.001 units=km
New Line.CAB_4555159E:4555159E phases=3 Bus1=16243616.1.2.3 Bus2=16243598.1.2.3 switch=y r1=0.001 x1=0.001 r0=0.001 x0=0.001 Length=0.001 units=km
New Line.CAB_4565043E:4565043E phases=3 Bus1=193801948.1.2.3 Bus2=193801929.1.2.3 switch=y r1=0.001 x1=0.001 r0=0.001 x0=0.001 Length=0.001 units=km
New Line.CAB_4692246E:4692246E phases=3 Bus1=101876475.1.2.3 Bus2=101876457.1.2.3 switch=y r1=0.001 x1=0.001 r0=0.001 x0=0.001 Length=0.001 units=km
New Line.CAB_1051251E:1051251E phases=3 Bus1=16243308.1.2.3 Bus2=16243290.1.2.3 switch=y r1=0.001 x1=0.001 r0=0.001 x0=0.001 Length=0.001 units=km
New Line.CAB_696771E:696771E phases=3 Bus1=16230366.1.2.3 Bus2=16230350.1.2.3 switch=y r1=0.001 x1=0.001 r0=0.001 x0=0.001 Length=0.001 units=km
New Line.CAB_4097589E:4097589E phases=3 Bus1=16249425.1.2.3 Bus2=16249409.1.2.3 switch=y r1=0.001 x1=0.001 r0=0.001 x0=0.001 Length=0.001 units=km
New Line.CAB_4490367E:4490367E phases=3 Bus1=16252091.1.2.3 Bus2=16252075.1.2.3 switch=y r1=0.001 x1=0.001 r0=0.001 x0=0.001 Length=0.001 units=km
New Line.CAB_4565626E:4565626E phases=3 Bus1=16230391.1.2.3 Bus2=16230375.1.2.3 switch=y r1=0.001 x1=0.001 r0=0.001 x0=0.001 Length=0.001 units=km
New Line.CAB_1030589E:1030589E phases=3 Bus1=16250231.1.2.3 Bus2=16250215.1.2.3 switch=y r1=0.001 x1=0.001 r0=0.001 x0=0.001 Length=0.001 units=km
New Line.CAB_1428028E:1428028E phases=3 Bus1=16230266.1.2.3 Bus2=16230250.1.2.3 switch=y r1=0.001 x1=0.001 r0=0.001 x0=0.001 Length=0.001 units=km
New Line.CAB_579483E:579483E phases=3 Bus1=16250206.1.2.3 Bus2=16250190.1.2.3 switch=y r1=0.001 x1=0.001 r0=0.001 x0=0.001 Length=0.001 units=km
New Line.CAB_4490368E:4490368E phases=3 Bus1=16260450.1.2.3 Bus2=16260434.1.2.3 switch=y r1=0.001 x1=0.001 r0=0.001 x0=0.001 Length=0.001 units=km
New Line.CAB_4490369E:4490369E phases=3 Bus1=16260375.1.2.3 Bus2=16260359.1.2.3 switch=y r1=0.001 x1=0.001 r0=0.001 x0=0.001 Length=0.001 units=km
New Line.CAB_4693878E:4693878E phases=3 Bus1=16243945.1.2.3 Bus2=16243927.1.2.3 switch=y r1=0.001 x1=0.001 r0=0.001 x0=0.001 Length=0.001 units=km
New Line.CAB_746018E:746018E phases=3 Bus1=16231023.1.2.3 Bus2=16231005.1.2.3 switch=y r1=0.001 x1=0.001 r0=0.001 x0=0.001 Length=0.001 units=km
New Line.CAB_1635531E:1635531E phases=3 Bus1=226972347.1.2.3 Bus2=226972330.1.2.3 switch=y r1=0.001 x1=0.001 r0=0.001 x0=0.001 Length=0.001 units=km
New Line.CAB_2351556E:2351556E phases=3 Bus1=165031860.1.2.3 Bus2=165031842.1.2.3 switch=y r1=0.001 x1=0.001 r0=0.001 x0=0.001 Length=0.001 units=km
New Line.CAB_4568655E:4568655E phases=3 Bus1=16249468.1.2.3 Bus2=16249450.1.2.3 switch=y r1=0.001 x1=0.001 r0=0.001 x0=0.001 Length=0.001 units=km
New Line.CAB_2272544E:2272544E phases=3 Bus1=16243360.1.2.3 Bus2=16243344.1.2.3 switch=y r1=0.001 x1=0.001 r0=0.001 x0=0.001 Length=0.001 units=km
New Line.CAB_1464608E:1464608E phases=3 Bus1=16243974.1.2.3 Bus2=16243956.1.2.3 switch=y r1=0.001 x1=0.001 r0=0.001 x0=0.001 Length=0.001 units=km
New Line.CAB_4316110E:4316110E phases=3 Bus1=16251169.1.2.3 Bus2=16251151.1.2.3 switch=y r1=0.001 x1=0.001 r0=0.001 x0=0.001 Length=0.001 units=km
New Line.CAB_4368140E:4368140E phases=3 Bus1=16257222.1.2.3 Bus2=16257206.1.2.3 switch=y r1=0.001 x1=0.001 r0=0.001 x0=0.001 Length=0.001 units=km
New Line.CAB_436627E:436627E phases=3 Bus1=16257472.1.2.3 Bus2=16257456.1.2.3 switch=y r1=0.001 x1=0.001 r0=0.001 x0=0.001 Length=0.001 units=km
New Line.CAB_286590E:286590E phases=3 Bus1=16243410.1.2.3 Bus2=16243394.1.2.3 switch=y r1=0.001 x1=0.001 r0=0.001 x0=0.001 Length=0.001 units=km
New Line.CAB_4699815E:4699815E phases=3 Bus1=16243893.1.2.3 Bus2=16243877.1.2.3 switch=y r1=0.001 x1=0.001 r0=0.001 x0=0.001 Length=0.001 units=km
New Line.CAB_4367731E:4367731E phases=3 Bus1=16257116.1.2.3 Bus2=16257098.1.2.3 switch=y r1=0.001 x1=0.001 r0=0.001 x0=0.001 Length=0.001 units=km
New Line.CAB_2261721E:2261721E phases=3 Bus1=17422297.1.2.3 Bus2=17422279.1.2.3 switch=y r1=0.001 x1=0.001 r0=0.001 x0=0.001 Length=0.001 units=km
New Line.CAB_4405353E:4405353E phases=3 Bus1=16259747.1.2.3 Bus2=16259731.1.2.3 switch=y r1=0.001 x1=0.001 r0=0.001 x0=0.001 Length=0.001 units=km
New Line.CAB_1428301E:1428301E phases=3 Bus1=16240317.1.2.3 Bus2=16240301.1.2.3 switch=y r1=0.001 x1=0.001 r0=0.001 x0=0.001 Length=0.001 units=km
New Line.CAB_4367682E:4367682E phases=3 Bus1=16259722.1.2.3 Bus2=16259706.1.2.3 switch=y r1=0.001 x1=0.001 r0=0.001 x0=0.001 Length=0.001 units=km
New Line.CAB_1428309E:1428309E phases=3 Bus1=16240392.1.2.3 Bus2=16240376.1.2.3 switch=y r1=0.001 x1=0.001 r0=0.001 x0=0.001 Length=0.001 units=km
New Line.CAB_4130765E:4130765E phases=3 Bus1=16240658.1.2.3 Bus2=16240642.1.2.3 switch=y r1=0.001 x1=0.001 r0=0.001 x0=0.001 Length=0.001 units=km
New Line.CAB_673512E:673512E phases=3 Bus1=16243668.1.2.3 Bus2=16243652.1.2.3 switch=y r1=0.001 x1=0.001 r0=0.001 x0=0.001 Length=0.001 units=km
New Line.CAB_1980640E:1980640E phases=3 Bus1=16244026.1.2.3 Bus2=16244010.1.2.3 switch=y r1=0.001 x1=0.001 r0=0.001 x0=0.001 Length=0.001 units=km
New Line.CAB_754662E:754662E phases=3 Bus1=16244151.1.2.3 Bus2=16244135.1.2.3 switch=y r1=0.001 x1=0.001 r0=0.001 x0=0.001 Length=0.001 units=km
New Line.CAB_4565190E:4565190E phases=3 Bus1=16251221.1.2.3 Bus2=16251205.1.2.3 switch=y r1=0.001 x1=0.001 r0=0.001 x0=0.001 Length=0.001 units=km
New Line.CAB_4110022E:4110022E phases=3 Bus1=16257145.1.2.3 Bus2=16257127.1.2.3 switch=y r1=0.001 x1=0.001 r0=0.001 x0=0.001 Length=0.001 units=km
New Line.CAB_4680525E:4680525E phases=3 Bus1=17422351.1.2.3 Bus2=17422333.1.2.3 switch=y r1=0.001 x1=0.001 r0=0.001 x0=0.001 Length=0.001 units=km
New Line.CAB_4368137E:4368137E phases=3 Bus1=16257973.1.2.3 Bus2=16257957.1.2.3 switch=y r1=0.001 x1=0.001 r0=0.001 x0=0.001 Length=0.001 units=km
New Line.CAB_4367680E:4367680E phases=3 Bus1=16259006.1.2.3 Bus2=16258990.1.2.3 switch=y r1=0.001 x1=0.001 r0=0.001 x0=0.001 Length=0.001 units=km
New Line.CAB_1428319E:1428319E phases=3 Bus1=16240633.1.2.3 Bus2=16240617.1.2.3 switch=y r1=0.001 x1=0.001 r0=0.001 x0=0.001 Length=0.001 units=km
New Line.CAB_4568663E:4568663E phases=3 Bus1=16249513.1.2.3 Bus2=16249495.1.2.3 switch=y r1=0.001 x1=0.001 r0=0.001 x0=0.001 Length=0.001 units=km
New Line.CAB_2348732E:2348732E phases=3 Bus1=16257247.1.2.3 Bus2=16257231.1.2.3 switch=y r1=0.001 x1=0.001 r0=0.001 x0=0.001 Length=0.001 units=km
New Line.CAB_312093E:312093E phases=3 Bus1=16243693.1.2.3 Bus2=16243677.1.2.3 switch=y r1=0.001 x1=0.001 r0=0.001 x0=0.001 Length=0.001 units=km
New Line.CAB_1980643E:1980643E phases=3 Bus1=16244051.1.2.3 Bus2=16244035.1.2.3 switch=y r1=0.001 x1=0.001 r0=0.001 x0=0.001 Length=0.001 units=km
New Line.CAB_754663E:754663E phases=3 Bus1=16244126.1.2.3 Bus2=16244110.1.2.3 switch=y r1=0.001 x1=0.001 r0=0.001 x0=0.001 Length=0.001 units=km
New Line.CAB_4367962E:4367962E phases=3 Bus1=16257948.1.2.3 Bus2=16257932.1.2.3 switch=y r1=0.001 x1=0.001 r0=0.001 x0=0.001 Length=0.001 units=km
New Line.CAB_908005E:908005E phases=3 Bus1=187742904.1.2.3 Bus2=187742885.1.2.3 switch=y r1=0.001 x1=0.001 r0=0.001 x0=0.001 Length=0.001 units=km
New Line.CAB_4404503E:4404503E phases=3 Bus1=16248828.1.2.3 Bus2=16248812.1.2.3 switch=y r1=0.001 x1=0.001 r0=0.001 x0=0.001 Length=0.001 units=km
New Line.CAB_509835E:509835E phases=3 Bus1=16258052.1.2.3 Bus2=16258036.1.2.3 switch=y r1=0.001 x1=0.001 r0=0.001 x0=0.001 Length=0.001 units=km
New Line.CAB_908006E:908006E phases=3 Bus1=16243514.1.2.3 Bus2=16243498.1.2.3 switch=y r1=0.001 x1=0.001 r0=0.001 x0=0.001 Length=0.001 units=km
New Line.CAB_451038E:451038E phases=3 Bus1=16240867.1.2.3 Bus2=16240851.1.2.3 switch=y r1=0.001 x1=0.001 r0=0.001 x0=0.001 Length=0.001 units=km
New Line.CAB_4214496E:4214496E phases=3 Bus1=16243460.1.2.3 Bus2=16243444.1.2.3 switch=y r1=0.001 x1=0.001 r0=0.001 x0=0.001 Length=0.001 units=km
New Line.CAB_2041982E:2041982E phases=3 Bus1=16244001.1.2.3 Bus2=16243985.1.2.3 switch=y r1=0.001 x1=0.001 r0=0.001 x0=0.001 Length=0.001 units=km
New Line.CAB_4367807E:4367807E phases=3 Bus1=16257597.1.2.3 Bus2=16257581.1.2.3 switch=y r1=0.001 x1=0.001 r0=0.001 x0=0.001 Length=0.001 units=km
New Line.CAB_4367958E:4367958E phases=3 Bus1=16257773.1.2.3 Bus2=16257757.1.2.3 switch=y r1=0.001 x1=0.001 r0=0.001 x0=0.001 Length=0.001 units=km
New Line.CAB_4568667E:4568667E phases=3 Bus1=98741448.1.2.3 Bus2=98741431.1.2.3 switch=y r1=0.001 x1=0.001 r0=0.001 x0=0.001 Length=0.001 units=km
New Line.CAB_4568668E:4568668E phases=3 Bus1=16251115.1.2.3 Bus2=16251097.1.2.3 switch=y r1=0.001 x1=0.001 r0=0.001 x0=0.001 Length=0.001 units=km
New Line.CAB_1635239E:1635239E phases=3 Bus1=16248722.1.2.3 Bus2=16248704.1.2.3 switch=y r1=0.001 x1=0.001 r0=0.001 x0=0.001 Length=0.001 units=km
New Line.CAB_193603E:193603E phases=3 Bus1=16251390.1.2.3 Bus2=16251374.1.2.3 switch=y r1=0.001 x1=0.001 r0=0.001 x0=0.001 Length=0.001 units=km
New Line.CAB_2253814E:2253814E phases=3 Bus1=16251504.1.2.3 Bus2=16251488.1.2.3 switch=y r1=0.001 x1=0.001 r0=0.001 x0=0.001 Length=0.001 units=km
New Line.CAB_4367730E:4367730E phases=3 Bus1=16257798.1.2.3 Bus2=16257782.1.2.3 switch=y r1=0.001 x1=0.001 r0=0.001 x0=0.001 Length=0.001 units=km
New Line.CAB_1687049E:1687049E phases=3 Bus1=17422409.1.2.3 Bus2=17422391.1.2.3 switch=y r1=0.001 x1=0.001 r0=0.001 x0=0.001 Length=0.001 units=km
New Line.CAB_2042184E:2042184E phases=3 Bus1=242498368.1.2.3 Bus2=242498351.1.2.3 switch=y r1=0.001 x1=0.001 r0=0.001 x0=0.001 Length=0.001 units=km
New Line.CAB_4646420E:4646420E phases=3 Bus1=243091473.1.2.3 Bus2=243091455.1.2.3 switch=y r1=0.001 x1=0.001 r0=0.001 x0=0.001 Length=0.001 units=km
New Line.CAB_4367726E:4367726E phases=3 Bus1=137871811.1.2.3 Bus2=137871792.1.2.3 switch=y r1=0.001 x1=0.001 r0=0.001 x0=0.001 Length=0.001 units=km
New Line.CAB_2042185E:2042185E phases=3 Bus1=16244076.1.2.3 Bus2=16244060.1.2.3 switch=y r1=0.001 x1=0.001 r0=0.001 x0=0.001 Length=0.001 units=km
New Line.CAB_1635240E:1635240E phases=3 Bus1=16252218.1.2.3 Bus2=16252200.1.2.3 switch=y r1=0.001 x1=0.001 r0=0.001 x0=0.001 Length=0.001 units=km
New Line.CAB_286572E:286572E phases=3 Bus1=17449472.1.2.3 Bus2=17449454.1.2.3 switch=y r1=0.001 x1=0.001 r0=0.001 x0=0.001 Length=0.001 units=km
New Line.CAB_2299657E:2299657E phases=3 Bus1=16249751.1.2.3 Bus2=16249733.1.2.3 switch=y r1=0.001 x1=0.001 r0=0.001 x0=0.001 Length=0.001 units=km
New Line.CAB_4544457E:4544457E phases=3 Bus1=16259031.1.2.3 Bus2=16259015.1.2.3 switch=y r1=0.001 x1=0.001 r0=0.001 x0=0.001 Length=0.001 units=km
New Line.CAB_641562E:641562E phases=3 Bus1=16244176.1.2.3 Bus2=16244160.1.2.3 switch=y r1=0.001 x1=0.001 r0=0.001 x0=0.001 Length=0.001 units=km
New Line.CAB_1635241E:1635241E phases=3 Bus1=16248751.1.2.3 Bus2=16248733.1.2.3 switch=y r1=0.001 x1=0.001 r0=0.001 x0=0.001 Length=0.001 units=km
New Line.CAB_4250919E:4250919E phases=3 Bus1=16257272.1.2.3 Bus2=16257256.1.2.3 switch=y r1=0.001 x1=0.001 r0=0.001 x0=0.001 Length=0.001 units=km
New Line.CAB_4368149E:4368149E phases=3 Bus1=16257823.1.2.3 Bus2=16257807.1.2.3 switch=y r1=0.001 x1=0.001 r0=0.001 x0=0.001 Length=0.001 units=km
New Line.CAB_4367953E:4367953E phases=3 Bus1=16257898.1.2.3 Bus2=16257882.1.2.3 switch=y r1=0.001 x1=0.001 r0=0.001 x0=0.001 Length=0.001 units=km
New Line.CAB_1312706E:1312706E phases=3 Bus1=17422438.1.2.3 Bus2=17422420.1.2.3 switch=y r1=0.001 x1=0.001 r0=0.001 x0=0.001 Length=0.001 units=km
New Line.CAB_641561E:641561E phases=3 Bus1=180039762.1.2.3 Bus2=180039743.1.2.3 switch=y r1=0.001 x1=0.001 r0=0.001 x0=0.001 Length=0.001 units=km
New Line.CAB_4002081E:4002081E phases=3 Bus1=16243589.1.2.3 Bus2=16243573.1.2.3 switch=y r1=0.001 x1=0.001 r0=0.001 x0=0.001 Length=0.001 units=km
New Line.CAB_2147502E:2147502E phases=3 Bus1=16244201.1.2.3 Bus2=16244185.1.2.3 switch=y r1=0.001 x1=0.001 r0=0.001 x0=0.001 Length=0.001 units=km
New Line.CAB_593876E:593876E phases=3 Bus1=16248695.1.2.3 Bus2=16248679.1.2.3 switch=y r1=0.001 x1=0.001 r0=0.001 x0=0.001 Length=0.001 units=km
New Line.CAB_1823644E:1823644E phases=3 Bus1=16252166.1.2.3 Bus2=16252150.1.2.3 switch=y r1=0.001 x1=0.001 r0=0.001 x0=0.001 Length=0.001 units=km
New Line.CAB_4367723E:4367723E phases=3 Bus1=16257297.1.2.3 Bus2=16257281.1.2.3 switch=y r1=0.001 x1=0.001 r0=0.001 x0=0.001 Length=0.001 units=km
New Line.CAB_4368147E:4368147E phases=3 Bus1=16257873.1.2.3 Bus2=16257857.1.2.3 switch=y r1=0.001 x1=0.001 r0=0.001 x0=0.001 Length=0.001 units=km
New Line.CAB_1823645E:1823645E phases=3 Bus1=16248520.1.2.3 Bus2=16248504.1.2.3 switch=y r1=0.001 x1=0.001 r0=0.001 x0=0.001 Length=0.001 units=km
New Line.CAB_4704186E:4704186E phases=3 Bus1=16249699.1.2.3 Bus2=16249683.1.2.3 switch=y r1=0.001 x1=0.001 r0=0.001 x0=0.001 Length=0.001 units=km
New Line.CAB_4247752E:4247752E phases=3 Bus1=16242222.1.2.3 Bus2=16242204.1.2.3 switch=y r1=0.001 x1=0.001 r0=0.001 x0=0.001 Length=0.001 units=km
...